* Shared models and subcircuits
.model nch nmos level=1
.subckt buffer in out
R1 in out 1k
.ends buffer
